Version 4
SHEET 1 1336 756
WIRE 624 -48 512 -48
WIRE 800 -48 704 -48
WIRE 112 -16 -160 -16
WIRE 1168 -16 1088 -16
WIRE 1312 -16 1248 -16
WIRE 112 16 112 -16
WIRE 112 112 112 96
WIRE 272 112 112 112
WIRE 416 112 352 112
WIRE 512 112 512 -48
WIRE 512 112 480 112
WIRE 592 112 512 112
WIRE -160 128 -160 -16
WIRE 112 128 112 112
WIRE 656 128 656 96
WIRE 592 144 592 112
WIRE 624 144 592 144
WIRE 1168 144 1168 80
WIRE 800 160 800 -48
WIRE 800 160 688 160
WIRE 960 160 800 160
WIRE 1088 160 1088 -16
WIRE 1088 160 1040 160
WIRE 1136 160 1088 160
WIRE 624 176 592 176
WIRE 1312 176 1312 -16
WIRE 1312 176 1200 176
WIRE 112 240 112 208
WIRE 272 240 112 240
WIRE 416 240 352 240
WIRE 528 240 480 240
WIRE 592 240 592 176
WIRE 592 240 528 240
WIRE 1312 240 1312 176
WIRE 656 256 656 192
WIRE -160 272 -160 208
WIRE 112 272 112 240
WIRE 528 288 528 240
WIRE 1168 288 1168 208
WIRE 112 400 112 352
WIRE 528 432 528 368
WIRE 1312 480 1312 304
WIRE 96 592 96 560
WIRE 240 592 240 544
WIRE 96 736 96 672
WIRE 240 736 240 672
FLAG -160 272 0
FLAG 112 400 0
FLAG 528 432 0
FLAG 96 736 0
FLAG 240 736 0
FLAG 96 560 VCC
FLAG 656 96 VCC
FLAG 240 544 VEE
FLAG 656 256 VEE
FLAG 1168 80 VCC
FLAG 1168 288 VEE
FLAG 1312 480 0
SYMBOL res 96 112 R0
SYMATTR InstName R1
SYMATTR Value 5.6k
SYMBOL Misc\\signal -160 112 R0
WINDOW 123 0 0 Left 2
WINDOW 39 0 0 Left 2
SYMATTR InstName V1
SYMATTR Value SINE(0 127 60)
SYMBOL res 96 256 R0
SYMATTR InstName R3
SYMATTR Value 470k
SYMBOL res 96 0 R0
SYMATTR InstName R2
SYMATTR Value 470k
SYMBOL res 368 96 R90
WINDOW 0 0 56 VBottom 2
WINDOW 3 32 56 VTop 2
SYMATTR InstName R4
SYMATTR Value 470k
SYMBOL res 368 224 R90
WINDOW 0 0 56 VBottom 2
WINDOW 3 32 56 VTop 2
SYMATTR InstName R5
SYMATTR Value 470k
SYMBOL cap 480 96 R90
WINDOW 0 0 32 VBottom 2
WINDOW 3 32 32 VTop 2
SYMATTR InstName C1
SYMATTR Value 100n
SYMBOL cap 480 224 R90
WINDOW 0 0 32 VBottom 2
WINDOW 3 32 32 VTop 2
SYMATTR InstName C2
SYMATTR Value 100n
SYMBOL Opamps\\OP07 656 96 R0
SYMATTR InstName U1
SYMBOL res 512 272 R0
SYMATTR InstName R6
SYMATTR Value 470k
SYMBOL res 720 -64 R90
WINDOW 0 -5 58 VBottom 2
WINDOW 3 32 56 VTop 2
SYMATTR InstName R7
SYMATTR Value 470k
SYMBOL voltage 96 576 R0
WINDOW 123 0 0 Left 2
WINDOW 39 0 0 Left 2
SYMATTR InstName V2
SYMATTR Value 5
SYMBOL voltage 240 576 R0
WINDOW 123 0 0 Left 2
WINDOW 39 0 0 Left 2
SYMATTR InstName V3
SYMATTR Value -5
SYMBOL res 1056 144 R90
WINDOW 0 0 56 VBottom 2
WINDOW 3 32 56 VTop 2
SYMATTR InstName R8
SYMATTR Value 10k
SYMBOL Opamps\\UniversalOpamp2 1168 176 R0
SYMATTR InstName U2
SYMBOL res 1264 -32 R90
WINDOW 0 0 56 VBottom 2
WINDOW 3 32 56 VTop 2
SYMATTR InstName R9
SYMATTR Value 10k
SYMBOL zener 1328 304 R180
WINDOW 0 24 64 Left 2
WINDOW 3 24 0 Left 2
SYMATTR InstName D1
SYMATTR Value 1N750
SYMATTR Description Diode
SYMATTR Type diode
SYMBOL Pot\\potentiometer 640 432 R0
SYMATTR InstName U3
LINE Normal 1136 160 1040 160 2
